results/2026-03-05/bilevel_comparisons_single_period/solution_bus_motivation_c_equality_min.csv
bus_id,vm_avg,z_voltage
1,1.0048535276026083,1.0
2,1.0048535385815418,1.0
3,1.0063647137492362,1.0
4,1.0050412455331352,1.0
5,1.0063647137492362,1.0
6,1.014889156509222,1.0
7,1.0052076580253047,1.0
8,0.0,0.0
9,1.0072748976781278,1.0
10,1.0072748976781278,1.0
11,1.0050412356064367,1.0
12,1.0063649826889292,1.0
13,1.0048535276026083,1.0
14,0.0,0.0
15,1.0063649826889292,1.0
16,1.0072748976781278,1.0
17,1.0052076580253047,1.0
18,1.0048535276026083,1.0
19,0.0,0.0
20,1.0063647137492362,1.0
